Version 4
SHEET 1 880 680
SYMBOL npn 160 112 R0
SYMATTR InstName Q1
SYMATTR Value 2N2222A
SYMBOL OpAmps\\TL072 496 144 R0
SYMATTR InstName U1
TEXT 104 72 Left 2 !.inc custom_models.lib
