Version 4
SHEET 1 1336 680
WIRE 80 96 -32 96
WIRE 256 96 144 96
WIRE 544 96 336 96
WIRE 640 96 544 96
WIRE 800 96 720 96
WIRE -32 192 -32 96
WIRE 544 272 544 96
WIRE 640 272 544 272
WIRE -112 288 -304 288
WIRE 16 288 -112 288
WIRE 208 288 80 288
WIRE 448 288 288 288
WIRE 800 288 800 96
WIRE 800 288 704 288
WIRE 880 288 800 288
WIRE 1056 288 944 288
WIRE 448 304 448 288
WIRE 464 304 448 304
WIRE 640 304 464 304
WIRE 464 336 464 304
WIRE 1056 352 1056 288
WIRE -112 368 -112 288
WIRE 1168 384 1168 368
WIRE 864 400 656 400
WIRE 656 416 656 400
WIRE 864 496 864 400
WIRE 1056 496 1056 432
WIRE 464 528 464 416
WIRE 656 528 656 496
WIRE 656 528 464 528
WIRE 768 528 656 528
WIRE 656 560 656 528
WIRE 768 560 768 528
FLAG -304 368 0
FLAG -112 448 0
FLAG 656 640 0
FLAG 768 624 0
FLAG 864 576 0
FLAG 1056 496 0
FLAG -32 192 0
FLAG 672 320 0
FLAG 672 256 Vcc+
FLAG 864 400 Vcc+
FLAG -304 288 input
FLAG 1104 384 output
SYMBOL cap 144 80 R90
WINDOW 0 0 32 VBottom 2
WINDOW 3 32 32 VTop 2
SYMATTR InstName C1
SYMBOL cap 80 272 R90
WINDOW 0 0 32 VBottom 2
WINDOW 3 32 32 VTop 2
SYMATTR InstName C2
SYMBOL cap 944 272 R90
WINDOW 0 0 32 VBottom 2
WINDOW 3 32 32 VTop 2
SYMATTR InstName C3
SYMBOL cap 784 624 R180
WINDOW 0 24 56 Left 2
WINDOW 3 24 8 Left 2
SYMATTR InstName C4
SYMBOL res 352 80 R90
WINDOW 0 5 56 VBottom 2
WINDOW 3 27 56 VTop 2
SYMATTR InstName R1
SYMBOL res 304 272 R90
WINDOW 0 5 56 VBottom 2
WINDOW 3 27 56 VTop 2
SYMATTR InstName R2
SYMBOL res -96 464 R180
WINDOW 0 31 76 Left 2
WINDOW 3 31 40 Left 2
SYMATTR InstName R3
SYMBOL res 672 512 R180
WINDOW 0 31 76 Left 2
WINDOW 3 31 40 Left 2
SYMATTR InstName R4
SYMBOL res 672 656 R180
WINDOW 0 31 76 Left 2
WINDOW 3 31 40 Left 2
SYMATTR InstName R5
SYMBOL res 624 112 R270
WINDOW 0 27 56 VTop 2
WINDOW 3 5 56 VBottom 2
SYMATTR InstName R6
SYMBOL pot_euro 1040 336 R0
SYMATTR InstName U1
SYMBOL OpAmps\\TL072 672 224 R0
SYMATTR InstName U2
SYMBOL res 448 320 R0
SYMATTR InstName R7
SYMBOL voltage 864 480 R0
SYMATTR InstName V1
SYMBOL voltage -304 272 R0
SYMATTR InstName V2
