Version 4
SHEET 1 1336 884
WIRE 80 96 -32 96
WIRE 256 96 144 96
WIRE 544 96 336 96
WIRE 640 96 544 96
WIRE 800 96 720 96
WIRE -32 192 -32 96
WIRE 544 272 544 96
WIRE 640 272 544 272
WIRE -112 288 -304 288
WIRE 16 288 -112 288
WIRE 208 288 80 288
WIRE 448 288 288 288
WIRE 800 288 800 96
WIRE 800 288 704 288
WIRE 880 288 800 288
WIRE 1056 288 944 288
WIRE 448 304 448 288
WIRE 464 304 448 304
WIRE 640 304 464 304
WIRE 464 336 464 304
WIRE 1056 352 1056 288
WIRE 1168 384 1168 368
WIRE 1104 392 1104 384
WIRE 1104 400 1104 392
WIRE -112 416 -112 288
WIRE 464 464 464 416
WIRE 1056 496 1056 432
WIRE 272 512 64 512
WIRE -112 528 -112 496
WIRE 64 528 64 512
WIRE 272 608 272 512
WIRE 64 640 64 608
WIRE 64 640 0 640
WIRE 176 640 64 640
WIRE 64 672 64 640
WIRE 176 672 176 640
FLAG -304 368 0
FLAG -112 528 0
FLAG 64 752 0
FLAG 176 736 0
FLAG 272 688 0
FLAG 1056 496 0
FLAG -32 192 0
FLAG 672 320 0
FLAG 672 256 Vcc+
FLAG 272 512 Vcc+
FLAG -304 288 input
FLAG 1104 384 output
FLAG 0 640 vref
FLAG 464 464 vref
SYMBOL cap 144 80 R90
WINDOW 0 0 32 VBottom 2
WINDOW 3 32 32 VTop 2
SYMATTR InstName C1
SYMATTR Value 15”
SYMBOL cap 80 272 R90
WINDOW 0 0 32 VBottom 2
WINDOW 3 32 32 VTop 2
SYMATTR InstName C2
SYMATTR Value 10n
SYMBOL cap 944 272 R90
WINDOW 0 0 32 VBottom 2
WINDOW 3 32 32 VTop 2
SYMATTR InstName C3
SYMATTR Value 100n
SYMBOL cap 192 736 R180
WINDOW 0 24 56 Left 2
WINDOW 3 24 8 Left 2
SYMATTR InstName C4
SYMATTR Value 10”
SYMBOL res 352 80 R90
WINDOW 0 5 56 VBottom 2
WINDOW 3 27 56 VTop 2
SYMATTR InstName R1
SYMATTR Value 1k
SYMBOL res 304 272 R90
WINDOW 0 5 56 VBottom 2
WINDOW 3 27 56 VTop 2
SYMATTR InstName R2
SYMATTR Value 10k
SYMBOL res -96 512 R180
WINDOW 0 31 76 Left 2
WINDOW 3 31 40 Left 2
SYMATTR InstName R3
SYMATTR Value 10Meg
SYMBOL res 80 624 R180
WINDOW 0 31 76 Left 2
WINDOW 3 31 40 Left 2
SYMATTR InstName R4
SYMATTR Value 100k
SYMBOL res 80 768 R180
WINDOW 0 31 76 Left 2
WINDOW 3 35 49 Left 2
SYMATTR InstName R5
SYMATTR Value 100k
SYMBOL res 624 112 R270
WINDOW 0 27 56 VTop 2
WINDOW 3 5 56 VBottom 2
SYMATTR InstName R6
SYMATTR Value 9k
SYMBOL pot_euro 1040 336 R0
SYMATTR InstName U1
SYMATTR Value Rt=100K set=.5
SYMBOL OpAmps\\TL072 672 224 R0
SYMATTR InstName U2
SYMBOL res 448 320 R0
SYMATTR InstName R7
SYMATTR Value 1Meg
SYMBOL voltage 272 592 R0
WINDOW 123 0 0 Left 0
WINDOW 39 0 0 Left 0
SYMATTR InstName V1
SYMATTR Value 9v
SYMBOL voltage -304 272 R0
WINDOW 123 0 0 Left 0
WINDOW 39 0 0 Left 0
SYMATTR InstName V2
SYMATTR Value SINE(0 0.2 440)
TEXT 280 560 Left 2 !9v pwr
