Version 4
SHEET 1 1016 680
WIRE 272 -496 128 -496
WIRE 512 -496 352 -496
WIRE 128 -304 128 -496
WIRE 192 -304 128 -304
WIRE 304 -304 304 -448
WIRE 304 -304 256 -304
WIRE -48 -256 -80 -256
WIRE 128 -256 128 -304
WIRE 128 -256 16 -256
WIRE -80 -208 -80 -256
WIRE 128 -160 128 -256
WIRE 160 -160 128 -160
WIRE 304 -160 304 -304
WIRE 304 -160 288 -160
WIRE 128 -96 128 -160
WIRE 192 -96 128 -96
WIRE 304 -96 304 -160
WIRE 304 -96 256 -96
WIRE 128 32 128 -96
WIRE 192 32 128 32
WIRE 304 48 304 -96
WIRE 304 48 256 48
WIRE 352 48 304 48
WIRE 448 48 416 48
WIRE 640 48 528 48
WIRE -176 64 -304 64
WIRE -16 64 -96 64
WIRE 16 64 -16 64
WIRE 112 64 80 64
WIRE 192 64 112 64
WIRE -304 96 -304 64
WIRE 112 112 112 64
WIRE -16 128 -16 64
WIRE 480 128 480 96
WIRE -304 208 -304 176
WIRE -16 208 -16 192
WIRE 112 208 112 192
WIRE 480 208 480 192
WIRE -16 224 -16 208
FLAG 112 208 0
FLAG -16 208 0
FLAG -304 208 0
FLAG 480 208 0
FLAG -80 -128 0
FLAG 640 48 out
SYMBOL diode 192 -80 R270
WINDOW 0 32 32 VTop 2
WINDOW 3 0 32 VBottom 2
SYMATTR InstName D1
SYMBOL diode 288 -176 R90
WINDOW 0 0 32 VBottom 2
WINDOW 3 32 32 VTop 2
SYMATTR InstName D2
SYMBOL diode 224 -176 R90
WINDOW 0 0 32 VBottom 2
WINDOW 3 32 32 VTop 2
SYMATTR InstName D3
SYMBOL OpAmps\\opamp2 224 -16 R0
SYMATTR InstName U2
SYMBOL res -80 48 R90
WINDOW 0 0 56 VBottom 2
WINDOW 3 32 56 VTop 2
SYMATTR InstName R1
SYMBOL res 96 96 R0
SYMATTR InstName R2
SYMBOL cap -32 128 R0
SYMATTR InstName C1
SYMBOL cap 80 48 R90
WINDOW 0 0 32 VBottom 2
WINDOW 3 32 32 VTop 2
SYMATTR InstName C2
SYMBOL cap 416 32 R90
WINDOW 0 -4 33 VBottom 2
WINDOW 3 32 32 VTop 2
SYMATTR InstName C3
SYMBOL cap 192 -288 R270
WINDOW 0 32 32 VTop 2
WINDOW 3 0 32 VBottom 2
SYMATTR InstName C5
SYMBOL cap -48 -240 R270
WINDOW 0 32 32 VTop 2
WINDOW 3 0 32 VBottom 2
SYMATTR InstName C6
SYMBOL res -96 -224 R0
SYMATTR InstName R3
SYMBOL Misc\\signal -304 80 R0
WINDOW 123 0 0 Left 0
WINDOW 39 0 0 Left 0
SYMATTR InstName V1
SYMATTR Value SINE(0 1 440K)
SYMBOL pot 544 32 R90
SYMATTR InstName U1
SYMBOL pot 368 -512 R90
SYMATTR InstName U4
SYMBOL cap 464 128 R0
SYMATTR InstName C4
